test/resources/V1_16/dcGroundRoundTripRef.xml
<?xml version="1.0" encoding="UTF-8"?>
<iidm:network xmlns:iidm="http://www.powsybl.org/schema/iidm/1_16" id="dcGroundTest" caseDate="2025-01-02T03:04:05+01:00" forecastDistance="0" sourceFormat="code" minimumValidationLevel="STEADY_STATE_HYPOTHESIS">
    <iidm:dcNode id="dcNode" nominalV="500"/>
    <iidm:dcGround id="dcGroundWithoutSolvedV" name="A DC Ground without solved values" fictitious="true" dcNode="dcNode" r="0.10000000000000001" connected="false">
        <iidm:alias>someAlias</iidm:alias>
        <iidm:property name="prop name" value="prop value"/>
    </iidm:dcGround>
    <iidm:dcGround id="dcGroundWithSolvedValues" name="A DC Ground with solved values" dcNode="dcNode" r="2" connected="true" dcP="1.1000000000000001" dcI="2.2000000000000002"/>
</iidm:network>
